188

  C       -4.72500        4.10670        0.00000
  C       -6.05867        3.33668        0.00000
  C       -3.39133        3.33668        0.00000
  C       -3.39133        1.79665        0.00000
  C       -2.05766        1.02663        0.00000
  C       -0.72399        3.33668        0.00000
  C       -0.72399        1.79665        0.00000
  C        0.60968        4.10670        0.00000
  C        0.60968        1.02663        0.00000
  C        1.94335        3.33668        0.00000
  C        1.94335        1.79665        0.00000
  C        3.27702        4.10670        0.00000
  C        4.61069        3.33668        0.00000
  C        3.27702        1.02663        0.00000
  C        4.61069        1.79665        0.00000
  C        3.27702       -0.51340        0.00000
  C        5.94435        1.02663        0.00000
  C        4.61069       -1.28342        0.00000
  C        5.94435       -0.51340        0.00000
  C        5.94435       -3.59347        0.00000
  C        4.61069       -2.82345        0.00000
  C        3.27702       -3.59347        0.00000
  C        5.94436       -5.13350        0.00000
  C        3.27702       -5.13350        0.00000
  C        4.61069       -5.90352        0.00000
  C        3.27702       -8.21357        0.00000
  C        4.61069       -7.44355        0.00000
  C        1.94335       -7.44355        0.00000
  C        1.94335       -5.90352        0.00000
  C        0.60968       -5.13350        0.00000
  C        0.60968       -8.21357        0.00000
  C       -0.72399       -5.90352        0.00000
  C       -0.72399       -7.44355        0.00000
  C       -2.05766       -5.13350        0.00000
  C       -3.39133       -7.44355        0.00000
  C       -3.39133       -5.90352        0.00000
  C       -6.05867       -7.44355        0.00000
  C       -4.72500       -8.21357        0.00000
  C       -6.05867       -5.90352        0.00000
  C       -4.72500       -5.13350        0.00000
  C       -7.39234       -5.13350        0.00000
  C       -4.72500       -3.59347        0.00000
  C       -6.05867       -2.82345        0.00000
  C       -7.39234       -3.59347        0.00000
  C       -8.72601       -1.28342        0.00000
  C       -8.72601       -2.82345        0.00000
  C       -6.05867        1.79665        0.00000
  C       -4.72500        1.02663        0.00000
  C       -7.39234       -0.51340        0.00000
  C       -6.05867       -1.28342        0.00000
  C       -7.39234        1.02663        0.00000
  C       -4.72500       -0.51340        0.00000
  C        7.27802       -1.28342        0.00000
  C        7.27802       -2.82345        0.00000
  C        8.61169       -3.59347        0.00000
  C        9.94536       -2.82345        0.00000
  C        8.61169       -5.13350        0.00000
  C       11.27903       -3.59347        0.00000
  C        9.94536       -5.90352        0.00000
  C       11.27903       -5.13350        0.00000
  C        9.94536       -7.44355        0.00000
  C       11.27903       -8.21357        0.00000
  C       12.61270       -5.90352        0.00000
  C       12.61270       -7.44355        0.00000
  C       13.94637       -5.13350        0.00000
  C        9.94536       -1.28342        0.00000
  C        8.61169       -0.51340        0.00000
  C        8.61169        1.02663        0.00000
  C       11.27903       -0.51340        0.00000
  C       11.27903        1.02663        0.00000
  C        9.94536        1.79665        0.00000
  C       11.27903        4.10670        0.00000
  C        9.94536        3.33668        0.00000
  C       12.61270        3.33668        0.00000
  C       12.61270        1.79665        0.00000
  C       13.94637        1.02663        0.00000
  C       15.28004        1.79665        0.00000
  C       15.28004        3.33668        0.00000
  C       16.61371        4.10670        0.00000
  C       16.61371        1.02663        0.00000
  C       17.94738        1.79665        0.00000
  C       17.94738        3.33668        0.00000
  C       19.28105        4.10670        0.00000
  C       20.61472        3.33668        0.00000
  C       20.61472        1.79665        0.00000
  C       19.28105        1.02663        0.00000
  C       19.28105       -0.51340        0.00000
  C       21.94839        1.02663        0.00000
  C       21.94839       -0.51340        0.00000
  C       20.61472       -1.28342        0.00000
  C       21.94839       -3.59347        0.00000
  C       20.61472       -2.82345        0.00000
  C       19.28105       -3.59347        0.00000
  C       21.94839       -5.13350        0.00000
  C       20.61472       -5.90352        0.00000
  C       19.28105       -5.13350        0.00000
  C       19.28105       -8.21357        0.00000
  C       20.61472       -7.44355        0.00000
  C       15.28004       -7.44355        0.00000
  C       15.28004       -5.90352        0.00000
  C       17.94738       -7.44355        0.00000
  C       17.94738       -5.90352        0.00000
  C       16.61371       -5.13350        0.00000
  C       16.61371       -8.21357        0.00000
  C       23.28206       -1.28342        0.00000
  C       23.28206       -2.82345        0.00000
  C       25.94939       -1.28342        0.00000
  C       24.61573       -0.51340        0.00000
  C       24.61573        1.02663        0.00000
  C       27.28306       -0.51340        0.00000
  C       27.28306        1.02663        0.00000
  C       25.94939        1.79665        0.00000
  C       27.28306        4.10670        0.00000
  C       25.94939        3.33668        0.00000
  C       28.61673        3.33668        0.00000
  C       28.61673        1.79665        0.00000
  C       31.28417        3.33668        0.00000
  C       29.95053        1.02668        0.00000
  C       31.28417        1.79668        0.00000
  C       32.61781        1.02668        0.00000
  C       32.61781        4.10668        0.00000
  C       33.95160        1.79668        0.00000
  C       33.95160        3.33668        0.00000
  C       35.28527        4.10674        0.00000
  C       36.61894        3.33672        0.00000
  C       36.61894        1.79668        0.00000
  C       35.28527        1.02667        0.00000
  C       35.28527       -0.51337        0.00000
  C       37.95261        1.02667        0.00000
  C       36.61894       -1.28338        0.00000
  C       37.95261       -0.51337        0.00000
  C       39.28628       -2.82342        0.00000
  C       39.28628       -1.28338        0.00000
  C       36.61894       -2.82342        0.00000
  C       37.95261       -3.59343        0.00000
  C       35.28527       -3.59343        0.00000
  C       37.95261       -5.13347        0.00000
  C       35.28527       -5.13347        0.00000
  C       36.61894       -5.90349        0.00000
  C       35.28527       -8.21354        0.00000
  C       36.61894       -7.44352        0.00000
  C       33.95160       -7.44352        0.00000
  C       33.95160       -5.90349        0.00000
  C       32.61793       -5.13347        0.00000
  C       32.61793       -8.21354        0.00000
  C       31.28426       -5.90349        0.00000
  C       31.28426       -7.44352        0.00000
  C       29.95059       -5.13347        0.00000
  C       28.61692       -5.90349        0.00000
  C       28.61692       -7.44352        0.00000
  C       25.94959       -7.44352        0.00000
  C       27.28326       -8.21354        0.00000
  C       24.61573       -3.59347        0.00000
  C       25.94940       -2.82345        0.00000
  C       25.94959       -5.90349        0.00000
  C       27.28326       -5.13347        0.00000
  C       24.61573       -5.13350        0.00000
  C       27.28306       -3.59347        0.00000
  C       -2.05766        4.10670        0.00000
  C       -2.05766        5.64670        0.00000
  C        0.60970        5.64670        0.00000
  C       -2.05766       -8.21357        0.00000
  C       -2.05766       -9.75357        0.00000
  C        0.60970       -9.75357        0.00000
  C       13.94637       -8.21357        0.00000
  C       13.94637       -9.75357        0.00000
  C       16.61373       -9.75357        0.00000
  C       13.94637        4.10670        0.00000
  C       13.94637        5.64670        0.00000
  C       16.61373        5.64670        0.00000
  C       29.95059       -8.21354        0.00000
  C       29.95059       -9.75354        0.00000
  C       32.61795       -9.75354        0.00000
  C       29.95053        4.10668        0.00000
  C       29.95053        5.64668        0.00000
  C       32.61789        5.64668        0.00000
  C       31.28421        6.41668        0.00000
  C       31.28421        7.95668        0.00000
  C       31.28427      -10.52354        0.00000
  C       31.28427      -12.06354        0.00000
  C       15.28005      -10.52357        0.00000
  C       15.28005      -12.06357        0.00000
  C       15.28005        6.41670        0.00000
  C       15.28005        7.95670        0.00000
  C       -0.72398        6.41670        0.00000
  C       -0.72398        7.95670        0.00000
  C       -0.72398      -10.52357        0.00000
  C       -0.72398      -12.06357        0.00000
